OPT_V10/Two_days_first_run/powerflow_results_t17.txt
Pandapower Network Debug Info
==================================================

BUS:
       vm_pu  va_degree      p_mw    q_mvar
0   0.993081   0.120593  0.000828  0.001093
1   0.988466   0.201706  0.001661  0.001820
2   0.984230   0.298877  0.001981  0.003368
3   0.989649   0.184995  0.002361  0.003495
4   0.988583   0.282940  0.002989  0.005677
5   0.991726   0.112982  0.003863  0.005432
6   0.989795   0.115885  0.001337  0.001100
7   0.997833   0.017530  0.001596  0.001647
8   0.997718   0.046403  0.002226  0.002894
9   0.999825   0.000747  0.011624  0.010027
10  0.999832   0.000728  0.010226  0.009134
11  0.999850   0.000669  0.012425  0.010206
12  0.999779   0.001888  0.008535  0.005598
13  0.999751   0.002154  0.009863  0.010815
14  0.999760   0.002066  0.013560  0.012466
15  0.999929   0.000459  0.000000  0.000000
16  0.999929   0.000465  0.000000  0.000000
17  0.999783   0.001909  0.000000  0.000000
18  0.999783   0.001919  0.000000  0.000000
19  1.000000   0.000000 -0.041250 -0.044241
20  1.000000   0.000006  0.000000  0.000000
21  1.000000   0.000000 -0.044132 -0.050739
22  1.000000   0.000007  0.000000  0.000000
--------------------------------------------------

LINE:
    p_from_mw  q_from_mvar   p_to_mw  q_to_mvar         pl_mw       ql_mvar  i_from_ka   i_to_ka      i_ka  vm_from_pu  va_from_degree  vm_to_pu  va_to_degree  loading_percent
0    0.041240     0.040241 -0.041237  -0.040238  3.247467e-06  2.532104e-06   0.002218  0.002218  0.002218    1.000000        0.000006  0.999929      0.000459         0.964259
1    0.044122     0.046739 -0.044110  -0.046730  1.111246e-05  8.664568e-06   0.002474  0.002474  0.002474    1.000000        0.000007  0.999783      0.001909         1.075623
2    0.034278     0.029369 -0.034275  -0.029367  2.818861e-06  2.197913e-06   0.001738  0.001738  0.001738    0.999929        0.000459  0.999850      0.000669         0.755441
3    0.008535     0.005598 -0.008535  -0.005598  3.604791e-08  2.810715e-08   0.000393  0.000393  0.000393    0.999783        0.001909  0.999779      0.001888         0.170857
4    0.023424     0.023282 -0.023424  -0.023281  5.966663e-07  4.652305e-07   0.001271  0.001271  0.001271    0.999783        0.001909  0.999760      0.002066         0.552808
5    0.006949     0.009870 -0.006881  -0.009816  6.815473e-05  5.314137e-05   0.017423  0.017423  0.017423    0.999929        0.000465  0.993081      0.120593         7.575413
6    0.005258     0.006577 -0.005203  -0.006534  5.502631e-05  4.290492e-05   0.012156  0.012156  0.012156    0.999783        0.001919  0.991726      0.112982         5.285146
7    0.001599     0.001649 -0.001596  -0.001647  3.567823e-06  2.781890e-06   0.003317  0.003317  0.003317    0.999783        0.001919  0.997833      0.017530         1.442136
8    0.005284     0.008624 -0.005266  -0.008611  1.759655e-05  1.372032e-05   0.014602  0.014602  0.014602    0.999783        0.001919  0.997718      0.046403         6.348630
9    0.011624     0.010027 -0.011624  -0.010027  8.151931e-08  6.356195e-08   0.000591  0.000591  0.000591    0.999832        0.000728  0.999825      0.000747         0.256935
10   0.021850     0.019161 -0.021850  -0.019160  4.131752e-07  3.221595e-07   0.001119  0.001119  0.001119    0.999850        0.000669  0.999832      0.000728         0.486411
11   0.009863     0.010815 -0.009863  -0.010815  1.048352e-07  8.174170e-08   0.000564  0.000564  0.000564    0.999760        0.002066  0.999751      0.002154         0.245013
12  -0.003656    -0.005199  0.003680   0.005218  2.446102e-05  1.907266e-05   0.009281  0.009281  0.009281    0.988466        0.201706  0.993081      0.120593         4.035205
13  -0.002361    -0.003495  0.002373   0.003505  1.212813e-05  9.456505e-06   0.006152  0.006152  0.006152    0.989649        0.184995  0.993081      0.120593         2.674625
14  -0.001981    -0.003368  0.001995   0.003380  1.425927e-05  1.111819e-05   0.005731  0.005731  0.005731    0.984230        0.298877  0.988466      0.201706         2.491572
15   0.003040     0.005717 -0.002989  -0.005677  5.124915e-05  3.995980e-05   0.009367  0.009367  0.009367    0.997718        0.046403  0.988583      0.282940         4.072804
16  -0.001337    -0.001100  0.001340   0.001102  2.663752e-06  2.076971e-06   0.002525  0.002525  0.002525    0.989795        0.115885  0.991726      0.112982         1.097700
--------------------------------------------------

TRAFO:
    p_hv_mw  q_hv_mvar   p_lv_mw  q_lv_mvar    pl_mw  ql_mvar   i_hv_ka   i_lv_ka  vm_hv_pu  va_hv_degree  vm_lv_pu  va_lv_degree  loading_percent
0  0.006959   0.010869 -0.006949  -0.009870  0.00001    0.001  0.000497  0.017423  0.999929      0.000459  0.999929      0.000465         0.129071
1  0.012151   0.017850 -0.012141  -0.016850  0.00001    0.001  0.000831  0.029984  0.999783      0.001909  0.999783      0.001919         0.215979
2  0.041250   0.044241 -0.041240  -0.040241  0.00001    0.004  0.000499  0.002218  1.000000      0.000000  1.000000      0.000006         0.151220
3  0.044132   0.050739 -0.044122  -0.046739  0.00001    0.004  0.000555  0.002474  1.000000      0.000000  1.000000      0.000007         0.168115
--------------------------------------------------
